*SPEF "ieee 1481-1999"
*DESIGN "sram_wrapper"
*DATE "11:11:11 Fri 11 11, 1111"
*VENDOR "OpenRCX"
*PROGRAM "Parallel Extraction"
*VERSION "1.0"
*DESIGN_FLOW "NAME_SCOPE LOCAL" "PIN_CAP NONE"
*DIVIDER /
*DELIMITER :
*BUS_DELIMITER []
*T_UNIT 1 NS
*C_UNIT 1 PF
*R_UNIT 1 OHM
*L_UNIT 1 HENRY

*NAME_MAP
*3 clk
*4 pd_addr[0]
*5 pd_addr[1]
*6 pd_addr[2]
*7 pd_addr[3]
*8 pd_addr[4]
*9 pd_addr[5]
*10 pd_addr[6]
*11 pd_addr[7]
*12 pd_addr[8]
*13 pd_dout[0]
*14 pd_dout[10]
*15 pd_dout[11]
*16 pd_dout[12]
*17 pd_dout[13]
*18 pd_dout[14]
*19 pd_dout[15]
*20 pd_dout[16]
*21 pd_dout[17]
*22 pd_dout[18]
*23 pd_dout[19]
*24 pd_dout[1]
*25 pd_dout[20]
*26 pd_dout[21]
*27 pd_dout[22]
*28 pd_dout[23]
*29 pd_dout[24]
*30 pd_dout[25]
*31 pd_dout[26]
*32 pd_dout[27]
*33 pd_dout[28]
*34 pd_dout[29]
*35 pd_dout[2]
*36 pd_dout[30]
*37 pd_dout[31]
*38 pd_dout[3]
*39 pd_dout[4]
*40 pd_dout[5]
*41 pd_dout[6]
*42 pd_dout[7]
*43 pd_dout[8]
*44 pd_dout[9]
*45 pd_re
*46 pd_sel
*47 pd_wdata[0]
*48 pd_wdata[10]
*49 pd_wdata[11]
*50 pd_wdata[12]
*51 pd_wdata[13]
*52 pd_wdata[14]
*53 pd_wdata[15]
*54 pd_wdata[16]
*55 pd_wdata[17]
*56 pd_wdata[18]
*57 pd_wdata[19]
*58 pd_wdata[1]
*59 pd_wdata[20]
*60 pd_wdata[21]
*61 pd_wdata[22]
*62 pd_wdata[23]
*63 pd_wdata[24]
*64 pd_wdata[25]
*65 pd_wdata[26]
*66 pd_wdata[27]
*67 pd_wdata[28]
*68 pd_wdata[29]
*69 pd_wdata[2]
*70 pd_wdata[30]
*71 pd_wdata[31]
*72 pd_wdata[3]
*73 pd_wdata[4]
*74 pd_wdata[5]
*75 pd_wdata[6]
*76 pd_wdata[7]
*77 pd_wdata[8]
*78 pd_wdata[9]
*79 pd_we
*80 rx_addr[0]
*81 rx_addr[1]
*82 rx_addr[2]
*83 rx_addr[3]
*84 rx_addr[4]
*85 rx_addr[5]
*86 rx_addr[6]
*87 rx_addr[7]
*88 rx_addr[8]
*89 rx_addr[9]
*90 rx_din[0]
*91 rx_din[1]
*92 rx_din[2]
*93 rx_din[3]
*94 rx_din[4]
*95 rx_din[5]
*96 rx_din[6]
*97 rx_din[7]
*98 rx_dout[0]
*99 rx_dout[1]
*100 rx_dout[2]
*101 rx_dout[3]
*102 rx_dout[4]
*103 rx_dout[5]
*104 rx_dout[6]
*105 rx_dout[7]
*106 rx_we
*107 tx_addr[0]
*108 tx_addr[1]
*109 tx_addr[2]
*110 tx_addr[3]
*111 tx_addr[4]
*112 tx_addr[5]
*113 tx_addr[6]
*114 tx_addr[7]
*115 tx_addr[8]
*116 tx_addr[9]
*117 tx_dout[0]
*118 tx_dout[1]
*119 tx_dout[2]
*120 tx_dout[3]
*121 tx_dout[4]
*122 tx_dout[5]
*123 tx_dout[6]
*124 tx_dout[7]
*125 _000_
*126 _001_
*127 _002_
*128 _003_
*129 _004_
*130 _005_
*131 _006_
*132 _007_
*133 _008_
*134 _009_
*135 _010_
*136 _011_
*137 _012_
*138 _013_
*139 _014_
*140 _015_
*141 _016_
*142 _017_
*143 _018_
*144 _019_
*145 _020_
*146 _021_
*147 _022_
*148 _023_
*149 _024_
*150 _025_
*151 _026_
*152 _027_
*153 _028_
*154 _029_
*155 _030_
*156 _031_
*157 _032_
*158 _033_
*159 _034_
*160 _035_
*161 _036_
*162 _037_
*163 _038_
*164 _039_
*165 _040_
*166 _041_
*167 _042_
*168 _043_
*169 _044_
*170 _045_
*171 _046_
*172 _047_
*173 _048_
*174 _049_
*175 _050_
*176 _051_
*177 _052_
*178 _053_
*179 _054_
*180 _055_
*181 _056_
*182 _057_
*183 _058_
*184 _059_
*185 _060_
*186 _061_
*187 _062_
*188 _063_
*189 _064_
*190 _065_
*191 _066_
*192 _067_
*193 _068_
*194 _069_
*195 _070_
*196 clknet_0_clk
*197 clknet_2_0_0_clk
*198 clknet_2_1_0_clk
*199 clknet_2_2_0_clk
*200 clknet_2_3_0_clk
*201 net1
*202 net10
*203 net100
*204 net101
*205 net102
*206 net103
*207 net104
*208 net105
*209 net106
*210 net107
*211 net108
*212 net109
*213 net11
*214 net110
*215 net111
*216 net112
*217 net113
*218 net114
*219 net115
*220 net116
*221 net117
*222 net118
*223 net119
*224 net12
*225 net120
*226 net121
*227 net122
*228 net123
*229 net124
*230 net125
*231 net126
*232 net127
*233 net128
*234 net129
*235 net13
*236 net130
*237 net131
*238 net132
*239 net133
*240 net134
*241 net135
*242 net136
*243 net137
*244 net138
*245 net139
*246 net14
*247 net15
*248 net16
*249 net17
*250 net18
*251 net19
*252 net2
*253 net20
*254 net21
*255 net22
*256 net23
*257 net24
*258 net25
*259 net26
*260 net27
*261 net28
*262 net29
*263 net3
*264 net30
*265 net31
*266 net32
*267 net33
*268 net34
*269 net35
*270 net36
*271 net37
*272 net38
*273 net39
*274 net4
*275 net40
*276 net41
*277 net42
*278 net43
*279 net44
*280 net45
*281 net46
*282 net47
*283 net48
*284 net49
*285 net5
*286 net50
*287 net51
*288 net52
*289 net53
*290 net54
*291 net55
*292 net56
*293 net57
*294 net58
*295 net59
*296 net6
*297 net60
*298 net61
*299 net62
*300 net63
*301 net64
*302 net65
*303 net66
*304 net67
*305 net68
*306 net69
*307 net7
*308 net70
*309 net71
*310 net72
*311 net73
*312 net74
*313 net75
*314 net76
*315 net77
*316 net78
*317 net79
*318 net8
*319 net80
*320 net81
*321 net82
*322 net83
*323 net84
*324 net85
*325 net86
*326 net87
*327 net88
*328 net89
*329 net9
*330 net90
*331 net91
*332 net92
*333 net93
*334 net94
*335 net95
*336 net96
*337 net97
*338 net98
*339 net99
*340 pd_dout0\[0\]
*341 pd_dout0\[10\]
*342 pd_dout0\[11\]
*343 pd_dout0\[12\]
*344 pd_dout0\[13\]
*345 pd_dout0\[14\]
*346 pd_dout0\[15\]
*347 pd_dout0\[16\]
*348 pd_dout0\[17\]
*349 pd_dout0\[18\]
*350 pd_dout0\[19\]
*351 pd_dout0\[1\]
*352 pd_dout0\[20\]
*353 pd_dout0\[21\]
*354 pd_dout0\[22\]
*355 pd_dout0\[23\]
*356 pd_dout0\[24\]
*357 pd_dout0\[25\]
*358 pd_dout0\[26\]
*359 pd_dout0\[27\]
*360 pd_dout0\[28\]
*361 pd_dout0\[29\]
*362 pd_dout0\[2\]
*363 pd_dout0\[30\]
*364 pd_dout0\[31\]
*365 pd_dout0\[3\]
*366 pd_dout0\[4\]
*367 pd_dout0\[5\]
*368 pd_dout0\[6\]
*369 pd_dout0\[7\]
*370 pd_dout0\[8\]
*371 pd_dout0\[9\]
*372 pd_dout1\[0\]
*373 pd_dout1\[10\]
*374 pd_dout1\[11\]
*375 pd_dout1\[12\]
*376 pd_dout1\[13\]
*377 pd_dout1\[14\]
*378 pd_dout1\[15\]
*379 pd_dout1\[16\]
*380 pd_dout1\[17\]
*381 pd_dout1\[18\]
*382 pd_dout1\[19\]
*383 pd_dout1\[1\]
*384 pd_dout1\[20\]
*385 pd_dout1\[21\]
*386 pd_dout1\[22\]
*387 pd_dout1\[23\]
*388 pd_dout1\[24\]
*389 pd_dout1\[25\]
*390 pd_dout1\[26\]
*391 pd_dout1\[27\]
*392 pd_dout1\[28\]
*393 pd_dout1\[29\]
*394 pd_dout1\[2\]
*395 pd_dout1\[30\]
*396 pd_dout1\[31\]
*397 pd_dout1\[3\]
*398 pd_dout1\[4\]
*399 pd_dout1\[5\]
*400 pd_dout1\[6\]
*401 pd_dout1\[7\]
*402 pd_dout1\[8\]
*403 pd_dout1\[9\]
*404 rx_dout0\[0\]
*405 rx_dout0\[1\]
*406 rx_dout0\[2\]
*407 rx_dout0\[3\]
*408 rx_dout0\[4\]
*409 rx_dout0\[5\]
*410 rx_dout0\[6\]
*411 rx_dout0\[7\]
*412 rx_dout1\[0\]
*413 rx_dout1\[1\]
*414 rx_dout1\[2\]
*415 rx_dout1\[3\]
*416 rx_dout1\[4\]
*417 rx_dout1\[5\]
*418 rx_dout1\[6\]
*419 rx_dout1\[7\]
*420 tx_dout_w\[0\]
*421 tx_dout_w\[1\]
*422 tx_dout_w\[2\]
*423 tx_dout_w\[3\]
*424 tx_dout_w\[4\]
*425 tx_dout_w\[5\]
*426 tx_dout_w\[6\]
*427 tx_dout_w\[7\]
*428 ANTENNA_1
*429 ANTENNA_10
*430 ANTENNA_100
*431 ANTENNA_101
*432 ANTENNA_102
*433 ANTENNA_103
*434 ANTENNA_104
*435 ANTENNA_105
*436 ANTENNA_106
*437 ANTENNA_107
*438 ANTENNA_108
*439 ANTENNA_109
*440 ANTENNA_11
*441 ANTENNA_110
*442 ANTENNA_111
*443 ANTENNA_112
*444 ANTENNA_12
*445 ANTENNA_13
*446 ANTENNA_14
*447 ANTENNA_15
*448 ANTENNA_16
*449 ANTENNA_17
*450 ANTENNA_18
*451 ANTENNA_19
*452 ANTENNA_2
*453 ANTENNA_20
*454 ANTENNA_21
*455 ANTENNA_22
*456 ANTENNA_23
*457 ANTENNA_24
*458 ANTENNA_25
*459 ANTENNA_26
*460 ANTENNA_27
*461 ANTENNA_28
*462 ANTENNA_29
*463 ANTENNA_3
*464 ANTENNA_30
*465 ANTENNA_31
*466 ANTENNA_32
*467 ANTENNA_33
*468 ANTENNA_34
*469 ANTENNA_35
*470 ANTENNA_36
*471 ANTENNA_37
*472 ANTENNA_38
*473 ANTENNA_39
*474 ANTENNA_4
*475 ANTENNA_40
*476 ANTENNA_41
*477 ANTENNA_42
*478 ANTENNA_43
*479 ANTENNA_44
*480 ANTENNA_45
*481 ANTENNA_46
*482 ANTENNA_47
*483 ANTENNA_48
*484 ANTENNA_49
*485 ANTENNA_5
*486 ANTENNA_50
*487 ANTENNA_51
*488 ANTENNA_52
*489 ANTENNA_53
*490 ANTENNA_54
*491 ANTENNA_55
*492 ANTENNA_56
*493 ANTENNA_57
*494 ANTENNA_58
*495 ANTENNA_59
*496 ANTENNA_6
*497 ANTENNA_60
*498 ANTENNA_61
*499 ANTENNA_62
*500 ANTENNA_63
*501 ANTENNA_64
*502 ANTENNA_65
*503 ANTENNA_66
*504 ANTENNA_67
*505 ANTENNA_68
*506 ANTENNA_69
*507 ANTENNA_7
*508 ANTENNA_70
*509 ANTENNA_71
*510 ANTENNA_72
*511 ANTENNA_73
*512 ANTENNA_74
*513 ANTENNA_75
*514 ANTENNA_76
*515 ANTENNA_77
*516 ANTENNA_78
*517 ANTENNA_79
*518 ANTENNA_8
*519 ANTENNA_80
*520 ANTENNA_81
*521 ANTENNA_82
*522 ANTENNA_83
*523 ANTENNA_84
*524 ANTENNA_85
*525 ANTENNA_86
*526 ANTENNA_87
*527 ANTENNA_88
*528 ANTENNA_89
*529 ANTENNA_9
*530 ANTENNA_90
*531 ANTENNA_91
*532 ANTENNA_92
*533 ANTENNA_93
*534 ANTENNA_94
*535 ANTENNA_95
*536 ANTENNA_96
*537 ANTENNA_97
*538 ANTENNA_98
*539 ANTENNA_99
*540 FILLER_0_0_1005
*541 FILLER_0_0_1009
*542 FILLER_0_0_1021
*543 FILLER_0_0_1033
*544 FILLER_0_0_1037
*545 FILLER_0_0_1049
*546 FILLER_0_0_1061
*547 FILLER_0_0_1065
*548 FILLER_0_0_1077
*549 FILLER_0_0_1089
*550 FILLER_0_0_109
*551 FILLER_0_0_1093
*552 FILLER_0_0_1105
*553 FILLER_0_0_1110
*554 FILLER_0_0_1118
*555 FILLER_0_0_1121
*556 FILLER_0_0_113
*557 FILLER_0_0_1133
*558 FILLER_0_0_1145
*559 FILLER_0_0_1149
*560 FILLER_0_0_1161
*561 FILLER_0_0_1173
*562 FILLER_0_0_1177
*563 FILLER_0_0_1189
*564 FILLER_0_0_1201
*565 FILLER_0_0_1216
*566 FILLER_0_0_1228
*567 FILLER_0_0_1233
*568 FILLER_0_0_1245
*569 FILLER_0_0_125
*570 FILLER_0_0_1257
*571 FILLER_0_0_1261
*572 FILLER_0_0_1273
*573 FILLER_0_0_1285
*574 FILLER_0_0_1289
*575 FILLER_0_0_1299
*576 FILLER_0_0_13
*577 FILLER_0_0_1311
*578 FILLER_0_0_1315
*579 FILLER_0_0_1317
*580 FILLER_0_0_1329
*581 FILLER_0_0_1341
*582 FILLER_0_0_1345
*583 FILLER_0_0_1357
*584 FILLER_0_0_1369
*585 FILLER_0_0_137
*586 FILLER_0_0_1373
*587 FILLER_0_0_1385
*588 FILLER_0_0_1397
*589 FILLER_0_0_1401
*590 FILLER_0_0_141
*591 FILLER_0_0_1413
*592 FILLER_0_0_1425
*593 FILLER_0_0_1429
*594 FILLER_0_0_1441
*595 FILLER_0_0_1453
*596 FILLER_0_0_1457
*597 FILLER_0_0_1469
*598 FILLER_0_0_1481
*599 FILLER_0_0_1491
*600 FILLER_0_0_1503
*601 FILLER_0_0_1511
*602 FILLER_0_0_1513
*603 FILLER_0_0_1525
*604 FILLER_0_0_153
*605 FILLER_0_0_1537
*606 FILLER_0_0_1541
*607 FILLER_0_0_1553
*608 FILLER_0_0_1565
*609 FILLER_0_0_1569
*610 FILLER_0_0_1581
*611 FILLER_0_0_1593
*612 FILLER_0_0_1597
*613 FILLER_0_0_1609
*614 FILLER_0_0_1621
*615 FILLER_0_0_1625
*616 FILLER_0_0_1637
*617 FILLER_0_0_1649
*618 FILLER_0_0_165
*619 FILLER_0_0_1653
*620 FILLER_0_0_1665
*621 FILLER_0_0_1677
*622 FILLER_0_0_1681
*623 FILLER_0_0_169
*624 FILLER_0_0_1693
*625 FILLER_0_0_1705
*626 FILLER_0_0_1709
*627 FILLER_0_0_1721
*628 FILLER_0_0_1733
*629 FILLER_0_0_1737
*630 FILLER_0_0_1749
*631 FILLER_0_0_1761
*632 FILLER_0_0_1777
*633 FILLER_0_0_1789
*634 FILLER_0_0_1793
*635 FILLER_0_0_1805
*636 FILLER_0_0_181
*637 FILLER_0_0_1817
*638 FILLER_0_0_1821
*639 FILLER_0_0_1833
*640 FILLER_0_0_1845
*641 FILLER_0_0_1849
*642 FILLER_0_0_1861
*643 FILLER_0_0_1866
*644 FILLER_0_0_1874
*645 FILLER_0_0_1877
*646 FILLER_0_0_1889
*647 FILLER_0_0_1901
*648 FILLER_0_0_1905
*649 FILLER_0_0_1917
*650 FILLER_0_0_1929
*651 FILLER_0_0_193
*652 FILLER_0_0_1933
*653 FILLER_0_0_1945
*654 FILLER_0_0_1957
*655 FILLER_0_0_1961
*656 FILLER_0_0_197
*657 FILLER_0_0_1973
*658 FILLER_0_0_1985
*659 FILLER_0_0_1989
*660 FILLER_0_0_2001
*661 FILLER_0_0_2013
*662 FILLER_0_0_2017
*663 FILLER_0_0_2029
*664 FILLER_0_0_2041
*665 FILLER_0_0_2045
*666 FILLER_0_0_2063
*667 FILLER_0_0_2071
*668 FILLER_0_0_2073
*669 FILLER_0_0_2085
*670 FILLER_0_0_209
*671 FILLER_0_0_2097
*672 FILLER_0_0_2101
*673 FILLER_0_0_2113
*674 FILLER_0_0_2125
*675 FILLER_0_0_2129
*676 FILLER_0_0_2141
*677 FILLER_0_0_2146
*678 FILLER_0_0_2154
*679 FILLER_0_0_2157
*680 FILLER_0_0_2169
*681 FILLER_0_0_2181
*682 FILLER_0_0_2185
*683 FILLER_0_0_2197
*684 FILLER_0_0_2209
*685 FILLER_0_0_221
*686 FILLER_0_0_2213
*687 FILLER_0_0_2225
*688 FILLER_0_0_2237
*689 FILLER_0_0_225
*690 FILLER_0_0_2253
*691 FILLER_0_0_2265
*692 FILLER_0_0_2269
*693 FILLER_0_0_2281
*694 FILLER_0_0_2293
*695 FILLER_0_0_2297
*696 FILLER_0_0_2309
*697 FILLER_0_0_2321
*698 FILLER_0_0_2325
*699 FILLER_0_0_2335
*700 FILLER_0_0_2347
*701 FILLER_0_0_2351
*702 FILLER_0_0_2353
*703 FILLER_0_0_2365
*704 FILLER_0_0_237
*705 FILLER_0_0_2377
*706 FILLER_0_0_2381
*707 FILLER_0_0_2393
*708 FILLER_0_0_2405
*709 FILLER_0_0_2409
*710 FILLER_0_0_2421
*711 FILLER_0_0_2434
*712 FILLER_0_0_2437
*713 FILLER_0_0_2449
*714 FILLER_0_0_2461
*715 FILLER_0_0_2465
*716 FILLER_0_0_2477
*717 FILLER_0_0_2489
*718 FILLER_0_0_249
*719 FILLER_0_0_2493
*720 FILLER_0_0_25
*721 FILLER_0_0_2505
*722 FILLER_0_0_2517
*723 FILLER_0_0_253
*724 FILLER_0_0_2530
*725 FILLER_0_0_2542
*726 FILLER_0_0_2549
*727 FILLER_0_0_2561
*728 FILLER_0_0_2573
*729 FILLER_0_0_2577
*730 FILLER_0_0_2589
*731 FILLER_0_0_2601
*732 FILLER_0_0_2605
*733 FILLER_0_0_2627
*734 FILLER_0_0_2631
*735 FILLER_0_0_2633
*736 FILLER_0_0_2645
*737 FILLER_0_0_265
*738 FILLER_0_0_2657
*739 FILLER_0_0_2661
*740 FILLER_0_0_2673
*741 FILLER_0_0_2685
*742 FILLER_0_0_2689
*743 FILLER_0_0_2701
*744 FILLER_0_0_2713
*745 FILLER_0_0_2733
*746 FILLER_0_0_2741
*747 FILLER_0_0_2745
*748 FILLER_0_0_2757
*749 FILLER_0_0_2769
*750 FILLER_0_0_277
*751 FILLER_0_0_2773
*752 FILLER_0_0_2785
*753 FILLER_0_0_2797
*754 FILLER_0_0_281
*755 FILLER_0_0_2817
*756 FILLER_0_0_2825
*757 FILLER_0_0_2829
*758 FILLER_0_0_2841
*759 FILLER_0_0_2853
*760 FILLER_0_0_2857
*761 FILLER_0_0_2869
*762 FILLER_0_0_2881
*763 FILLER_0_0_2885
*764 FILLER_0_0_2891
*765 FILLER_0_0_29
*766 FILLER_0_0_2913
*767 FILLER_0_0_2925
*768 FILLER_0_0_293
*769 FILLER_0_0_2937
*770 FILLER_0_0_2941
*771 FILLER_0_0_2953
*772 FILLER_0_0_2965
*773 FILLER_0_0_2969
*774 FILLER_0_0_2981
*775 FILLER_0_0_2993
*776 FILLER_0_0_3017
*777 FILLER_0_0_3023
*778 FILLER_0_0_3025
*779 FILLER_0_0_3037
*780 FILLER_0_0_3049
*781 FILLER_0_0_305
*782 FILLER_0_0_3053
*783 FILLER_0_0_3065
*784 FILLER_0_0_3077
*785 FILLER_0_0_3081
*786 FILLER_0_0_309
*787 FILLER_0_0_3103
*788 FILLER_0_0_3107
*789 FILLER_0_0_3109
*790 FILLER_0_0_3121
*791 FILLER_0_0_3133
*792 FILLER_0_0_3137
*793 FILLER_0_0_3149
*794 FILLER_0_0_3161
*795 FILLER_0_0_3165
*796 FILLER_0_0_3173
*797 FILLER_0_0_3193
*798 FILLER_0_0_3205
*799 FILLER_0_0_321
*800 FILLER_0_0_3217
*801 FILLER_0_0_3221
*802 FILLER_0_0_3233
*803 FILLER_0_0_3245
*804 FILLER_0_0_3249
*805 FILLER_0_0_3261
*806 FILLER_0_0_3273
*807 FILLER_0_0_3289
*808 FILLER_0_0_3301
*809 FILLER_0_0_3305
*810 FILLER_0_0_3317
*811 FILLER_0_0_3329
*812 FILLER_0_0_333
*813 FILLER_0_0_3333
*814 FILLER_0_0_3345
*815 FILLER_0_0_3357
*816 FILLER_0_0_3361
*817 FILLER_0_0_337
*818 FILLER_0_0_3371
*819 FILLER_0_0_3383
*820 FILLER_0_0_3387
*821 FILLER_0_0_3389
*822 FILLER_0_0_3397
*823 FILLER_0_0_3417
*824 FILLER_0_0_3429
*825 FILLER_0_0_349
*826 FILLER_0_0_356
*827 FILLER_0_0_365
*828 FILLER_0_0_377
*829 FILLER_0_0_389
*830 FILLER_0_0_393
*831 FILLER_0_0_405
*832 FILLER_0_0_41
*833 FILLER_0_0_417
*834 FILLER_0_0_421
*835 FILLER_0_0_433
*836 FILLER_0_0_445
*837 FILLER_0_0_453
*838 FILLER_0_0_465
*839 FILLER_0_0_473
*840 FILLER_0_0_477
*841 FILLER_0_0_489
*842 FILLER_0_0_501
*843 FILLER_0_0_505
*844 FILLER_0_0_517
*845 FILLER_0_0_529
*846 FILLER_0_0_53
*847 FILLER_0_0_533
*848 FILLER_0_0_548
*849 FILLER_0_0_561
*850 FILLER_0_0_57
*851 FILLER_0_0_573
*852 FILLER_0_0_585
*853 FILLER_0_0_589
*854 FILLER_0_0_601
*855 FILLER_0_0_613
*856 FILLER_0_0_617
*857 FILLER_0_0_629
*858 FILLER_0_0_641
*859 FILLER_0_0_657
*860 FILLER_0_0_669
*861 FILLER_0_0_673
*862 FILLER_0_0_685
*863 FILLER_0_0_69
*864 FILLER_0_0_697
*865 FILLER_0_0_701
*866 FILLER_0_0_713
*867 FILLER_0_0_725
*868 FILLER_0_0_733
*869 FILLER_0_0_745
*870 FILLER_0_0_753
*871 FILLER_0_0_757
*872 FILLER_0_0_76
*873 FILLER_0_0_769
*874 FILLER_0_0_781
*875 FILLER_0_0_785
*876 FILLER_0_0_797
*877 FILLER_0_0_809
*878 FILLER_0_0_813
*879 FILLER_0_0_825
*880 FILLER_0_0_830
*881 FILLER_0_0_838
*882 FILLER_0_0_841
*883 FILLER_0_0_85
*884 FILLER_0_0_853
*885 FILLER_0_0_865
*886 FILLER_0_0_869
*887 FILLER_0_0_881
*888 FILLER_0_0_893
*889 FILLER_0_0_897
*890 FILLER_0_0_909
*891 FILLER_0_0_923
*892 FILLER_0_0_925
*893 FILLER_0_0_937
*894 FILLER_0_0_949
*895 FILLER_0_0_953
*896 FILLER_0_0_965
*897 FILLER_0_0_97
*898 FILLER_0_0_977
*899 FILLER_0_0_981
*900 FILLER_0_0_993
*901 FILLER_0_100_1102
*902 FILLER_0_100_1114
*903 FILLER_0_100_1126
*904 FILLER_0_100_1128
*905 FILLER_0_100_1140
*906 FILLER_0_100_1152
*907 FILLER_0_100_1164
*908 FILLER_0_100_1176
*909 FILLER_0_100_1182
*910 FILLER_0_100_1184
*911 FILLER_0_100_1196
*912 FILLER_0_100_1208
*913 FILLER_0_100_1220
*914 FILLER_0_100_1232
*915 FILLER_0_100_1238
*916 FILLER_0_100_1240
*917 FILLER_0_100_1252
*918 FILLER_0_100_1256
*919 FILLER_0_100_15
*920 FILLER_0_100_2297
*921 FILLER_0_100_2309
*922 FILLER_0_100_2321
*923 FILLER_0_100_2323
*924 FILLER_0_100_2335
*925 FILLER_0_100_2347
*926 FILLER_0_100_2359
*927 FILLER_0_100_2371
*928 FILLER_0_100_2377
*929 FILLER_0_100_2379
*930 FILLER_0_100_2391
*931 FILLER_0_100_2403
*932 FILLER_0_100_2415
*933 FILLER_0_100_2427
*934 FILLER_0_100_2433
*935 FILLER_0_100_2435
*936 FILLER_0_100_2447
*937 FILLER_0_100_2459
*938 FILLER_0_100_2471
*939 FILLER_0_100_2483
*940 FILLER_0_100_2489
*941 FILLER_0_100_2491
*942 FILLER_0_100_2503
*943 FILLER_0_100_2515
*944 FILLER_0_100_2527
*945 FILLER_0_100_2539
*946 FILLER_0_100_2545
*947 FILLER_0_100_2547
*948 FILLER_0_100_2559
*949 FILLER_0_100_2571
*950 FILLER_0_100_2583
*951 FILLER_0_100_2595
*952 FILLER_0_100_2601
*953 FILLER_0_100_2603
*954 FILLER_0_100_2615
*955 FILLER_0_100_2627
*956 FILLER_0_100_2639
*957 FILLER_0_100_2651
*958 FILLER_0_100_2657
*959 FILLER_0_100_2659
*960 FILLER_0_100_2671
*961 FILLER_0_100_2683
*962 FILLER_0_100_2695
*963 FILLER_0_100_27
*964 FILLER_0_100_2707
*965 FILLER_0_100_2713
*966 FILLER_0_100_2715
*967 FILLER_0_100_2727
*968 FILLER_0_100_2739
*969 FILLER_0_100_2751
*970 FILLER_0_100_2763
*971 FILLER_0_100_2769
*972 FILLER_0_100_2771
*973 FILLER_0_100_2783
*974 FILLER_0_100_2795
*975 FILLER_0_100_2807
*976 FILLER_0_100_2819
*977 FILLER_0_100_2825
*978 FILLER_0_100_2827
*979 FILLER_0_100_2839
*980 FILLER_0_100_2851
*981 FILLER_0_100_2863
*982 FILLER_0_100_2875
*983 FILLER_0_100_2881
*984 FILLER_0_100_2883
*985 FILLER_0_100_2895
*986 FILLER_0_100_29
*987 FILLER_0_100_2907
*988 FILLER_0_100_2919
*989 FILLER_0_100_2931
*990 FILLER_0_100_2937
*991 FILLER_0_100_2939
*992 FILLER_0_100_2951
*993 FILLER_0_100_2963
*994 FILLER_0_100_2975
*995 FILLER_0_100_2987
*996 FILLER_0_100_2993
*997 FILLER_0_100_2995
*998 FILLER_0_100_3
*999 FILLER_0_100_3007
*1000 FILLER_0_100_3019
*1001 FILLER_0_100_3031
*1002 FILLER_0_100_3043
*1003 FILLER_0_100_3049
*1004 FILLER_0_100_3051
*1005 FILLER_0_100_3063
*1006 FILLER_0_100_3075
*1007 FILLER_0_100_3087
*1008 FILLER_0_100_3099
*1009 FILLER_0_100_3105
*1010 FILLER_0_100_3107
*1011 FILLER_0_100_3119
*1012 FILLER_0_100_3131
*1013 FILLER_0_100_3143
*1014 FILLER_0_100_3155
*1015 FILLER_0_100_3161
*1016 FILLER_0_100_3163
*1017 FILLER_0_100_3175
*1018 FILLER_0_100_3187
*1019 FILLER_0_100_3199
*1020 FILLER_0_100_3211
*1021 FILLER_0_100_3217
*1022 FILLER_0_100_3219
*1023 FILLER_0_100_3231
*1024 FILLER_0_100_3243
*1025 FILLER_0_100_3255
*1026 FILLER_0_100_3267
*1027 FILLER_0_100_3273
*1028 FILLER_0_100_3275
*1029 FILLER_0_100_3287
*1030 FILLER_0_100_3299
*1031 FILLER_0_100_3311
*1032 FILLER_0_100_3323
*1033 FILLER_0_100_3329
*1034 FILLER_0_100_3331
*1035 FILLER_0_100_3343
*1036 FILLER_0_100_3355
*1037 FILLER_0_100_3367
*1038 FILLER_0_100_3379
*1039 FILLER_0_100_3385
*1040 FILLER_0_100_3387
*1041 FILLER_0_100_3399
*1042 FILLER_0_100_3411
*1043 FILLER_0_100_3423
*1044 FILLER_0_100_41
*1045 FILLER_0_100_53
*1046 FILLER_0_101_1102
*1047 FILLER_0_101_1114
*1048 FILLER_0_101_1126
*1049 FILLER_0_101_1138
*1050 FILLER_0_101_1150
*1051 FILLER_0_101_1154
*1052 FILLER_0_101_1156
*1053 FILLER_0_101_1168
*1054 FILLER_0_101_1180
*1055 FILLER_0_101_1192
*1056 FILLER_0_101_1204
*1057 FILLER_0_101_1210
*1058 FILLER_0_101_1212
*1059 FILLER_0_101_1224
*1060 FILLER_0_101_1236
*1061 FILLER_0_101_1248
*1062 FILLER_0_101_1256
*1063 FILLER_0_101_15
*1064 FILLER_0_101_2297
*1065 FILLER_0_101_2309
*1066 FILLER_0_101_2321
*1067 FILLER_0_101_2333
*1068 FILLER_0_101_2345
*1069 FILLER_0_101_2349
*1070 FILLER_0_101_2351
*1071 FILLER_0_101_2363
*1072 FILLER_0_101_2375
*1073 FILLER_0_101_2387
*1074 FILLER_0_101_2399
*1075 FILLER_0_101_2405
*1076 FILLER_0_101_2407
*1077 FILLER_0_101_2419
*1078 FILLER_0_101_2431
*1079 FILLER_0_101_2443
*1080 FILLER_0_101_2455
*1081 FILLER_0_101_2461
*1082 FILLER_0_101_2463
*1083 FILLER_0_101_2475
*1084 FILLER_0_101_2487
*1085 FILLER_0_101_2499
*1086 FILLER_0_101_2511
*1087 FILLER_0_101_2517
*1088 FILLER_0_101_2519
*1089 FILLER_0_101_2531
*1090 FILLER_0_101_2543
*1091 FILLER_0_101_2555
*1092 FILLER_0_101_2567
*1093 FILLER_0_101_2573
*1094 FILLER_0_101_2575
*1095 FILLER_0_101_2587
*1096 FILLER_0_101_2599
*1097 FILLER_0_101_2611
*1098 FILLER_0_101_2623
*1099 FILLER_0_101_2629
*1100 FILLER_0_101_2631
*1101 FILLER_0_101_2643
*1102 FILLER_0_101_2655
*1103 FILLER_0_101_2667
*1104 FILLER_0_101_2679
*1105 FILLER_0_101_2685
*1106 FILLER_0_101_2687
*1107 FILLER_0_101_2699
*1108 FILLER_0_101_27
*1109 FILLER_0_101_2711
*1110 FILLER_0_101_2723
*1111 FILLER_0_101_2735
*1112 FILLER_0_101_2741
*1113 FILLER_0_101_2743
*1114 FILLER_0_101_2755
*1115 FILLER_0_101_2767
*1116 FILLER_0_101_2779
*1117 FILLER_0_101_2791
*1118 FILLER_0_101_2797
*1119 FILLER_0_101_2799
*1120 FILLER_0_101_2811
*1121 FILLER_0_101_2823
*1122 FILLER_0_101_2835
*1123 FILLER_0_101_2847
*1124 FILLER_0_101_2853
*1125 FILLER_0_101_2855
*1126 FILLER_0_101_2867
*1127 FILLER_0_101_2879
*1128 FILLER_0_101_2891
*1129 FILLER_0_101_2903
*1130 FILLER_0_101_2909
*1131 FILLER_0_101_2911
*1132 FILLER_0_101_2923
*1133 FILLER_0_101_2935
*1134 FILLER_0_101_2947
*1135 FILLER_0_101_2959
*1136 FILLER_0_101_2965
*1137 FILLER_0_101_2967
*1138 FILLER_0_101_2979
*1139 FILLER_0_101_2991
*1140 FILLER_0_101_3
*1141 FILLER_0_101_3003
*1142 FILLER_0_101_3015
*1143 FILLER_0_101_3021
*1144 FILLER_0_101_3023
*1145 FILLER_0_101_3035
*1146 FILLER_0_101_3047
*1147 FILLER_0_101_3059
*1148 FILLER_0_101_3071
*1149 FILLER_0_101_3077
*1150 FILLER_0_101_3079
*1151 FILLER_0_101_3091
*1152 FILLER_0_101_3103
*1153 FILLER_0_101_3115
*1154 FILLER_0_101_3127
*1155 FILLER_0_101_3133
*1156 FILLER_0_101_3135
*1157 FILLER_0_101_3147
*1158 FILLER_0_101_3159
*1159 FILLER_0_101_3171
*1160 FILLER_0_101_3183
*1161 FILLER_0_101_3189
*1162 FILLER_0_101_3191
*1163 FILLER_0_101_3203
*1164 FILLER_0_101_3215
*1165 FILLER_0_101_3227
*1166 FILLER_0_101_3239
*1167 FILLER_0_101_3245
*1168 FILLER_0_101_3247
*1169 FILLER_0_101_3259
*1170 FILLER_0_101_3271
*1171 FILLER_0_101_3283
*1172 FILLER_0_101_3295
*1173 FILLER_0_101_3301
*1174 FILLER_0_101_3303
*1175 FILLER_0_101_3315
*1176 FILLER_0_101_3327
*1177 FILLER_0_101_3339
*1178 FILLER_0_101_3351
*1179 FILLER_0_101_3357
*1180 FILLER_0_101_3359
*1181 FILLER_0_101_3371
*1182 FILLER_0_101_3383
*1183 FILLER_0_101_3395
*1184 FILLER_0_101_3407
*1185 FILLER_0_101_3413
*1186 FILLER_0_101_3415
*1187 FILLER_0_101_3427
*1188 FILLER_0_101_39
*1189 FILLER_0_101_51
*1190 FILLER_0_101_55
*1191 FILLER_0_101_57
*1192 FILLER_0_102_1102
*1193 FILLER_0_102_1114
*1194 FILLER_0_102_1126
*1195 FILLER_0_102_1128
*1196 FILLER_0_102_1140
*1197 FILLER_0_102_1152
*1198 FILLER_0_102_1164
*1199 FILLER_0_102_1176
*1200 FILLER_0_102_1182
*1201 FILLER_0_102_1184
*1202 FILLER_0_102_1196
*1203 FILLER_0_102_1208
*1204 FILLER_0_102_1220
*1205 FILLER_0_102_1232
*1206 FILLER_0_102_1238
*1207 FILLER_0_102_1240
*1208 FILLER_0_102_1252
*1209 FILLER_0_102_1256
*1210 FILLER_0_102_15
*1211 FILLER_0_102_2297
*1212 FILLER_0_102_2309
*1213 FILLER_0_102_2321
*1214 FILLER_0_102_2323
*1215 FILLER_0_102_2335
*1216 FILLER_0_102_2347
*1217 FILLER_0_102_2359
*1218 FILLER_0_102_2371
*1219 FILLER_0_102_2377
*1220 FILLER_0_102_2379
*1221 FILLER_0_102_2391
*1222 FILLER_0_102_2403
*1223 FILLER_0_102_2415
*1224 FILLER_0_102_2427
*1225 FILLER_0_102_2433
*1226 FILLER_0_102_2435
*1227 FILLER_0_102_2447
*1228 FILLER_0_102_2459
*1229 FILLER_0_102_2471
*1230 FILLER_0_102_2483
*1231 FILLER_0_102_2489
*1232 FILLER_0_102_2491
*1233 FILLER_0_102_2503
*1234 FILLER_0_102_2515
*1235 FILLER_0_102_2527
*1236 FILLER_0_102_2539
*1237 FILLER_0_102_2545
*1238 FILLER_0_102_2547
*1239 FILLER_0_102_2559
*1240 FILLER_0_102_2571
*1241 FILLER_0_102_2583
*1242 FILLER_0_102_2595
*1243 FILLER_0_102_2601
*1244 FILLER_0_102_2603
*1245 FILLER_0_102_2615
*1246 FILLER_0_102_2627
*1247 FILLER_0_102_2639
*1248 FILLER_0_102_2651
*1249 FILLER_0_102_2657
*1250 FILLER_0_102_2659
*1251 FILLER_0_102_2671
*1252 FILLER_0_102_2683
*1253 FILLER_0_102_2695
*1254 FILLER_0_102_27
*1255 FILLER_0_102_2707
*1256 FILLER_0_102_2713
*1257 FILLER_0_102_2715
*1258 FILLER_0_102_2727
*1259 FILLER_0_102_2739
*1260 FILLER_0_102_2751
*1261 FILLER_0_102_2763
*1262 FILLER_0_102_2769
*1263 FILLER_0_102_2771
*1264 FILLER_0_102_2783
*1265 FILLER_0_102_2795
*1266 FILLER_0_102_2807
*1267 FILLER_0_102_2819
*1268 FILLER_0_102_2825
*1269 FILLER_0_102_2827
*1270 FILLER_0_102_2839
*1271 FILLER_0_102_2851
*1272 FILLER_0_102_2863
*1273 FILLER_0_102_2875
*1274 FILLER_0_102_2881
*1275 FILLER_0_102_2883
*1276 FILLER_0_102_2895
*1277 FILLER_0_102_29
*1278 FILLER_0_102_2907
*1279 FILLER_0_102_2919
*1280 FILLER_0_102_2931
*1281 FILLER_0_102_2937
*1282 FILLER_0_102_2939
*1283 FILLER_0_102_2951
*1284 FILLER_0_102_2963
*1285 FILLER_0_102_2975
*1286 FILLER_0_102_2987
*1287 FILLER_0_102_2993
*1288 FILLER_0_102_2995
*1289 FILLER_0_102_3
*1290 FILLER_0_102_3007
*1291 FILLER_0_102_3019
*1292 FILLER_0_102_3031
*1293 FILLER_0_102_3043
*1294 FILLER_0_102_3049
*1295 FILLER_0_102_3051
*1296 FILLER_0_102_3063
*1297 FILLER_0_102_3075
*1298 FILLER_0_102_3087
*1299 FILLER_0_102_3099
*1300 FILLER_0_102_3105
*1301 FILLER_0_102_3107
*1302 FILLER_0_102_3119
*1303 FILLER_0_102_3131
*1304 FILLER_0_102_3143
*1305 FILLER_0_102_3155
*1306 FILLER_0_102_3161
*1307 FILLER_0_102_3163
*1308 FILLER_0_102_3175
*1309 FILLER_0_102_3187
*1310 FILLER_0_102_3199
*1311 FILLER_0_102_3211
*1312 FILLER_0_102_3217
*1313 FILLER_0_102_3219
*1314 FILLER_0_102_3231
*1315 FILLER_0_102_3243
*1316 FILLER_0_102_3255
*1317 FILLER_0_102_3267
*1318 FILLER_0_102_3273
*1319 FILLER_0_102_3275
*1320 FILLER_0_102_3287
*1321 FILLER_0_102_3299
*1322 FILLER_0_102_3311
*1323 FILLER_0_102_3323
*1324 FILLER_0_102_3329
*1325 FILLER_0_102_3331
*1326 FILLER_0_102_3343
*1327 FILLER_0_102_3355
*1328 FILLER_0_102_3367
*1329 FILLER_0_102_3379
*1330 FILLER_0_102_3385
*1331 FILLER_0_102_3387
*1332 FILLER_0_102_3399
*1333 FILLER_0_102_3411
*1334 FILLER_0_102_3423
*1335 FILLER_0_102_41
*1336 FILLER_0_102_53
*1337 FILLER_0_103_1102
*1338 FILLER_0_103_1114
*1339 FILLER_0_103_1126
*1340 FILLER_0_103_1138
*1341 FILLER_0_103_1150
*1342 FILLER_0_103_1154
*1343 FILLER_0_103_1156
*1344 FILLER_0_103_1168
*1345 FILLER_0_103_1180
*1346 FILLER_0_103_1192
*1347 FILLER_0_103_1204
*1348 FILLER_0_103_1210
*1349 FILLER_0_103_1212
*1350 FILLER_0_103_1224
*1351 FILLER_0_103_1236
*1352 FILLER_0_103_1248
*1353 FILLER_0_103_1256
*1354 FILLER_0_103_15
*1355 FILLER_0_103_2297
*1356 FILLER_0_103_2309
*1357 FILLER_0_103_2321
*1358 FILLER_0_103_2333
*1359 FILLER_0_103_2345
*1360 FILLER_0_103_2349
*1361 FILLER_0_103_2351
*1362 FILLER_0_103_2363
*1363 FILLER_0_103_2375
*1364 FILLER_0_103_2387
*1365 FILLER_0_103_2399
*1366 FILLER_0_103_2405
*1367 FILLER_0_103_2407
*1368 FILLER_0_103_2419
*1369 FILLER_0_103_2431
*1370 FILLER_0_103_2443
*1371 FILLER_0_103_2455
*1372 FILLER_0_103_2461
*1373 FILLER_0_103_2463
*1374 FILLER_0_103_2475
*1375 FILLER_0_103_2487
*1376 FILLER_0_103_2499
*1377 FILLER_0_103_2511
*1378 FILLER_0_103_2517
*1379 FILLER_0_103_2519
*1380 FILLER_0_103_2531
*1381 FILLER_0_103_2543
*1382 FILLER_0_103_2555
*1383 FILLER_0_103_2567
*1384 FILLER_0_103_2573
*1385 FILLER_0_103_2575
*1386 FILLER_0_103_2587
*1387 FILLER_0_103_2599
*1388 FILLER_0_103_2611
*1389 FILLER_0_103_2623
*1390 FILLER_0_103_2629
*1391 FILLER_0_103_2631
*1392 FILLER_0_103_2643
*1393 FILLER_0_103_2655
*1394 FILLER_0_103_2667
*1395 FILLER_0_103_2679
*1396 FILLER_0_103_2685
*1397 FILLER_0_103_2687
*1398 FILLER_0_103_2699
*1399 FILLER_0_103_27
*1400 FILLER_0_103_2711
*1401 FILLER_0_103_2723
*1402 FILLER_0_103_2735
*1403 FILLER_0_103_2741
*1404 FILLER_0_103_2743
*1405 FILLER_0_103_2755
*1406 FILLER_0_103_2767
*1407 FILLER_0_103_2779
*1408 FILLER_0_103_2791
*1409 FILLER_0_103_2797
*1410 FILLER_0_103_2799
*1411 FILLER_0_103_2811
*1412 FILLER_0_103_2823
*1413 FILLER_0_103_2835
*1414 FILLER_0_103_2847
*1415 FILLER_0_103_2853
*1416 FILLER_0_103_2855
*1417 FILLER_0_103_2867
*1418 FILLER_0_103_2879
*1419 FILLER_0_103_2891
*1420 FILLER_0_103_2903
*1421 FILLER_0_103_2909
*1422 FILLER_0_103_2911
*1423 FILLER_0_103_2923
*1424 FILLER_0_103_2935
*1425 FILLER_0_103_2947
*1426 FILLER_0_103_2959
*1427 FILLER_0_103_2965
*1428 FILLER_0_103_2967
*1429 FILLER_0_103_2979
*1430 FILLER_0_103_2991
*1431 FILLER_0_103_3
*1432 FILLER_0_103_3003
*1433 FILLER_0_103_3015
*1434 FILLER_0_103_3021
*1435 FILLER_0_103_3023
*1436 FILLER_0_103_3035
*1437 FILLER_0_103_3047
*1438 FILLER_0_103_3059
*1439 FILLER_0_103_3071
*1440 FILLER_0_103_3077
*1441 FILLER_0_103_3079
*1442 FILLER_0_103_3091
*1443 FILLER_0_103_3103
*1444 FILLER_0_103_3115
*1445 FILLER_0_103_3127
*1446 FILLER_0_103_3133
*1447 FILLER_0_103_3135
*1448 FILLER_0_103_3147
*1449 FILLER_0_103_3159
*1450 FILLER_0_103_3171
*1451 FILLER_0_103_3183
*1452 FILLER_0_103_3189
*1453 FILLER_0_103_3191
*1454 FILLER_0_103_3203
*1455 FILLER_0_103_3215
*1456 FILLER_0_103_3227
*1457 FILLER_0_103_3239
*1458 FILLER_0_103_3245
*1459 FILLER_0_103_3247
*1460 FILLER_0_103_3259
*1461 FILLER_0_103_3271
*1462 FILLER_0_103_3283
*1463 FILLER_0_103_3295
*1464 FILLER_0_103_3301
*1465 FILLER_0_103_3303
*1466 FILLER_0_103_3315
*1467 FILLER_0_103_3327
*1468 FILLER_0_103_3339
*1469 FILLER_0_103_3351
*1470 FILLER_0_103_3357
*1471 FILLER_0_103_3359
*1472 FILLER_0_103_3371
*1473 FILLER_0_103_3383
*1474 FILLER_0_103_3395
*1475 FILLER_0_103_3407
*1476 FILLER_0_103_3413
*1477 FILLER_0_103_3415
*1478 FILLER_0_103_3427
*1479 FILLER_0_103_39
*1480 FILLER_0_103_51
*1481 FILLER_0_103_55
*1482 FILLER_0_103_57
*1483 FILLER_0_104_1102
*1484 FILLER_0_104_1114
*1485 FILLER_0_104_1126
*1486 FILLER_0_104_1128
*1487 FILLER_0_104_1140
*1488 FILLER_0_104_1152
*1489 FILLER_0_104_1164
*1490 FILLER_0_104_1176
*1491 FILLER_0_104_1182
*1492 FILLER_0_104_1184
*1493 FILLER_0_104_1196
*1494 FILLER_0_104_1208
*1495 FILLER_0_104_1220
*1496 FILLER_0_104_1232
*1497 FILLER_0_104_1238
*1498 FILLER_0_104_1240
*1499 FILLER_0_104_1252
*1500 FILLER_0_104_1256
*1501 FILLER_0_104_15
*1502 FILLER_0_104_2297
*1503 FILLER_0_104_2309
*1504 FILLER_0_104_2321
*1505 FILLER_0_104_2323